Version 4
SHEET 1 880 680
WIRE 256 -48 256 -96
WIRE 64 144 64 48
WIRE 192 144 64 144
WIRE 256 144 256 32
WIRE 448 176 320 176
WIRE -96 208 -256 208
WIRE 64 208 -16 208
WIRE 192 208 64 208
WIRE -256 256 -256 208
WIRE 64 304 64 208
WIRE 96 304 64 304
WIRE 448 304 448 176
WIRE 448 304 176 304
WIRE 256 336 256 208
WIRE -256 400 -256 336
WIRE 256 464 256 416
FLAG 256 464 0
FLAG 256 -96 0
FLAG 64 48 0
FLAG -256 400 0
SYMBOL voltage 256 48 R180
WINDOW 123 0 0 Left 0
WINDOW 39 0 0 Left 0
SYMATTR InstName V1
SYMATTR Value 9
SYMBOL voltage 256 432 R180
WINDOW 0 24 96 Left 2
WINDOW 3 24 16 Left 2
WINDOW 123 0 0 Left 0
WINDOW 39 0 0 Left 0
SYMATTR InstName V2
SYMATTR Value 9
SYMBOL res 192 288 R90
WINDOW 0 0 56 VBottom 2
WINDOW 3 32 56 VTop 2
SYMATTR InstName R1
SYMATTR Value 2k
SYMBOL res 0 192 R90
WINDOW 0 0 56 VBottom 2
WINDOW 3 32 56 VTop 2
SYMATTR InstName R2
SYMATTR Value 1k
SYMBOL voltage -256 240 R0
WINDOW 123 24 124 Left 2
WINDOW 39 0 0 Left 0
SYMATTR Value2 AC 1
SYMATTR InstName V3
SYMATTR Value SINE(0 1 1000 0 0 0 100)
SYMBOL Giug_Amp_101 256 176 R0
SYMATTR InstName X2
TEXT 464 440 Left 2 !.tran 10m
