Version 4
SHEET 1 880 680
WIRE 192 64 -80 64
WIRE 256 64 256 -80
WIRE -80 96 -80 64
WIRE 432 96 336 96
WIRE 192 128 144 128
WIRE 144 192 144 128
WIRE 432 192 432 96
WIRE 432 192 144 192
WIRE 256 272 256 128
FLAG 256 -160 0
FLAG 256 352 0
FLAG -80 176 0
FLAG 432 96 o
FLAG -80 64 i
SYMBOL Giug_Amp_301 256 96 R0
SYMATTR InstName X1
SYMBOL voltage 256 -64 R180
WINDOW 0 24 96 Left 2
WINDOW 3 24 16 Left 2
WINDOW 123 0 0 Left 0
WINDOW 39 0 0 Left 0
SYMATTR InstName V1
SYMATTR Value 9
SYMBOL voltage 256 368 R180
WINDOW 123 0 0 Left 0
WINDOW 39 0 0 Left 0
SYMATTR InstName V2
SYMATTR Value 9
SYMBOL voltage -80 80 R0
WINDOW 123 0 0 Left 0
WINDOW 39 0 0 Left 0
SYMATTR InstName V3
SYMATTR Value 0
TEXT -64 232 Left 2 !.dc V3 -9 9 0.01
