Version 4
SHEET 1 880 680
WIRE -48 128 -48 96
WIRE 208 128 -48 128
WIRE 272 128 272 48
WIRE 480 160 352 160
WIRE 208 192 144 192
WIRE 272 272 272 192
FLAG 272 -32 0
FLAG 272 352 0
FLAG 480 160 o
FLAG -48 16 0
FLAG 144 192 0
SYMBOL Giug_Amp_301 272 160 R0
SYMATTR InstName X1
SYMBOL voltage 272 64 R180
WINDOW 0 24 96 Left 2
WINDOW 3 24 16 Left 2
WINDOW 123 0 0 Left 0
WINDOW 39 0 0 Left 0
SYMATTR InstName V1
SYMATTR Value 9
SYMBOL voltage 272 368 R180
WINDOW 0 24 96 Left 2
WINDOW 3 24 16 Left 2
WINDOW 123 0 0 Left 0
WINDOW 39 0 0 Left 0
SYMATTR InstName V2
SYMATTR Value 9
SYMBOL voltage -48 0 R0
WINDOW 123 24 124 Left 2
WINDOW 39 0 0 Left 0
SYMATTR Value2 AC 1
SYMATTR InstName V3
SYMATTR Value SINE(0 1)
TEXT 368 328 Left 2 !.ac dec 100 10 10Meg
