Version 4
SHEET 1 880 680
WIRE 144 128 -368 128
WIRE 208 128 208 32
WIRE 416 160 288 160
WIRE 144 192 32 192
WIRE -368 224 -368 128
WIRE 32 256 32 192
WIRE 416 256 416 160
WIRE 416 256 32 256
WIRE 208 288 208 192
FLAG 208 -48 0
FLAG 208 368 0
FLAG -368 304 0
FLAG 416 160 o
FLAG -368 128 i
SYMBOL Giug_Amp_301 208 160 R0
SYMATTR InstName X1
SYMBOL voltage 208 48 R180
WINDOW 0 24 96 Left 2
WINDOW 3 24 16 Left 2
WINDOW 123 0 0 Left 0
WINDOW 39 0 0 Left 0
SYMATTR InstName V1
SYMATTR Value 9
SYMBOL voltage 208 384 R180
WINDOW 0 24 96 Left 2
WINDOW 3 24 16 Left 2
WINDOW 123 0 0 Left 0
WINDOW 39 0 0 Left 0
SYMATTR InstName V2
SYMATTR Value 9
SYMBOL voltage -368 208 R0
WINDOW 123 0 0 Left 0
WINDOW 39 0 0 Left 0
SYMATTR InstName V3
SYMATTR Value PULSE(0 1 2u 0.1n 0.1n 2.5u 5u 2)
TEXT -360 360 Left 2 !.noise V(o) V1 dec 1001 1k 10mega
