Version 4
SHEET 1 880 680
WIRE 128 112 128 32
WIRE 176 112 128 112
WIRE 240 112 240 -64
WIRE 480 144 320 144
WIRE -48 176 -144 176
WIRE 128 176 32 176
WIRE 176 176 128 176
WIRE -144 224 -144 176
WIRE 128 272 128 176
WIRE 272 272 128 272
WIRE 480 272 480 144
WIRE 480 272 352 272
WIRE -144 320 -144 304
WIRE 240 384 240 176
FLAG 240 464 0
FLAG 240 -144 0
FLAG 128 32 0
FLAG -144 320 0
FLAG -144 176 i
FLAG 480 144 o
SYMBOL Giug_Amp_301 240 144 R0
SYMATTR InstName X1
SYMBOL voltage 240 -48 R180
WINDOW 0 24 96 Left 2
WINDOW 3 24 16 Left 2
WINDOW 123 0 0 Left 0
WINDOW 39 0 0 Left 0
SYMATTR InstName V1
SYMATTR Value 9
SYMBOL voltage 240 480 R180
WINDOW 0 24 96 Left 2
WINDOW 3 24 16 Left 2
WINDOW 123 0 0 Left 0
WINDOW 39 0 0 Left 0
SYMATTR InstName V2
SYMATTR Value 9
SYMBOL res 256 288 R270
WINDOW 0 32 56 VTop 2
WINDOW 3 0 56 VBottom 2
SYMATTR InstName R1
SYMATTR Value 100k
SYMBOL res 48 160 R90
WINDOW 0 0 56 VBottom 2
WINDOW 3 32 56 VTop 2
SYMATTR InstName R2
SYMATTR Value 10k
SYMBOL voltage -144 208 R0
WINDOW 123 0 0 Left 0
WINDOW 39 0 0 Left 0
SYMATTR InstName V3
SYMATTR Value 0
TEXT 408 344 Left 2 !.dc V3 -9 9 0.01
