Version 4
SHEET 1 880 680
WIRE 32 144 -384 144
WIRE 128 144 32 144
WIRE 192 144 192 32
WIRE 384 176 272 176
WIRE 128 208 80 208
WIRE -384 224 -384 144
WIRE 80 272 80 208
WIRE 384 272 384 176
WIRE 384 272 80 272
WIRE 192 336 192 208
FLAG 192 416 0
FLAG 192 -48 0
FLAG -384 304 0
FLAG 384 176 o
FLAG 32 144 i
SYMBOL Giug_Amp_301 192 176 R0
SYMATTR InstName X1
SYMBOL voltage 192 48 R180
WINDOW 0 24 96 Left 2
WINDOW 3 24 16 Left 2
WINDOW 123 0 0 Left 0
WINDOW 39 0 0 Left 0
SYMATTR InstName V1
SYMATTR Value 9
SYMBOL voltage 192 432 R180
WINDOW 0 24 96 Left 2
WINDOW 3 24 16 Left 2
WINDOW 123 0 0 Left 0
WINDOW 39 0 0 Left 0
SYMATTR InstName V2
SYMATTR Value 9
SYMBOL voltage -384 208 R0
WINDOW 123 0 0 Left 0
WINDOW 39 0 0 Left 0
SYMATTR InstName V3
SYMATTR Value PULSE(0 1 1u 1n 1n 10u 20u)
TEXT 336 320 Left 2 !.tran 50u
