Version 4
SHEET 1 880 680
WIRE 240 -64 240 -144
WIRE 128 128 128 64
WIRE 176 128 128 128
WIRE 240 128 240 16
WIRE 560 160 320 160
WIRE -32 192 -272 192
WIRE 144 192 48 192
WIRE 176 192 144 192
WIRE -272 256 -272 192
WIRE 144 256 144 192
WIRE 352 256 144 256
WIRE 560 256 560 160
WIRE 560 256 432 256
WIRE 240 320 240 192
WIRE -272 416 -272 336
WIRE 240 464 240 400
FLAG 240 464 0
FLAG -272 416 0
FLAG 128 64 0
FLAG 240 -144 0
FLAG -272 192 i
FLAG 560 160 o
SYMBOL voltage 240 32 R180
WINDOW 0 24 96 Left 2
WINDOW 3 24 16 Left 2
WINDOW 123 0 0 Left 0
WINDOW 39 0 0 Left 0
SYMATTR InstName V1
SYMATTR Value 9
SYMBOL voltage -272 240 R0
WINDOW 123 24 124 Left 2
WINDOW 39 0 0 Left 0
SYMATTR Value2 AC 1
SYMATTR InstName V3
SYMATTR Value SINE(0 1 1000 0 0 0 100)
SYMBOL res 64 176 R90
WINDOW 0 0 56 VBottom 2
WINDOW 3 32 56 VTop 2
SYMATTR InstName R1
SYMATTR Value 1k
SYMBOL res 448 240 R90
WINDOW 0 0 56 VBottom 2
WINDOW 3 32 56 VTop 2
SYMATTR InstName R2
SYMATTR Value 5k
SYMBOL voltage 240 416 R180
WINDOW 0 24 96 Left 2
WINDOW 3 24 16 Left 2
WINDOW 123 0 0 Left 0
WINDOW 39 0 0 Left 0
SYMATTR InstName V2
SYMATTR Value 9
SYMBOL Giug_Amp_301 240 160 R0
SYMATTR InstName X2
TEXT 360 104 Left 2 !.tran 10m
