Version 4
SHEET 1 880 680
WIRE 224 48 80 48
WIRE 80 128 80 48
WIRE 128 128 80 128
WIRE 224 144 224 48
WIRE 224 144 192 144
WIRE 128 160 80 160
WIRE 80 208 80 160
WIRE 80 304 80 288
FLAG 80 304 0
FLAG 224 144 o
FLAG 80 160 i
SYMBOL voltage 80 192 R0
WINDOW 123 0 0 Left 0
WINDOW 39 0 0 Left 0
SYMATTR InstName V1
SYMATTR Value PULSE(0 1 2u 0.1n 0.1n 2.5u 5u 2)
SYMBOL OPAMPF2022 160 144 R0
SYMATTR InstName U1
TEXT 104 320 Left 2 !.tran 0 10u 0
